Circuit: * D:\Documents\Github\Electromiografo\Design\espejo\simulacion.asc

Direct Newton iteration for .op point succeeded.

Date: Tue Jun 06 15:17:27 2017
Total elapsed time: 0.112 seconds.

tnom = 27
temp = 27
method = modified trap
totiter = 2090
traniter = 2082
tranpoints = 1042
accept = 1042
rejected = 0
matrix size = 12
fillins = 0
solver = Normal
Matrix Compiler1: 802 bytes object code size  0.3/0.1/[0.1]
Matrix Compiler2: 1022 bytes object code size  0.1/0.2/[0.1]


