Circuit: * E:\Documents\Github\Electromiografo\Design\LTspice\Drenador\Drenador.asc

Direct Newton iteration for .op point succeeded.

Date: Thu Apr 13 10:07:08 2017
Total elapsed time: 0.074 seconds.

tnom = 27
temp = 27
method = modified trap
totiter = 162
traniter = 154
tranpoints = 78
accept = 78
rejected = 0
matrix size = 10
fillins = 0
solver = Normal
Matrix Compiler1: 720 bytes object code size  0.8/1.4/[0.4]
Matrix Compiler2: 822 bytes object code size  0.4/0.7/[0.4]


