Circuit: * E:\Documents\Github\Electromiografo\Design\dif_mosfet\simulacion.asc

WARNING: Node SALIDA is floating.

WARNING: Less than two connections to node VIN2.  This node is used by V4.
WARNING: Less than two connections to node SALIDA.  This node is used by C1.
Direct Newton iteration failed to find .op point.  (Use ".option noopiter" to skip.)
Starting Gmin stepping
Gmin = 10
Gmin = 1.07374
Gmin = 0.115292
Gmin = 0.0123794
Gmin = 0.00132923
Gmin = 0.000142725
Gmin = 1.5325e-005
Gmin = 1.6455e-006
Gmin = 1.76685e-007
Gmin = 1.89714e-008
Gmin = 2.03704e-009
Gmin = 2.18725e-010
Gmin = 2.34854e-011
Gmin = 2.52173e-012
Gmin = 2.70769e-013
Gmin = 0
Gmin stepping succeeded in finding the operating point.


Date: Wed Jun 07 08:53:53 2017
Total elapsed time: 0.214 seconds.

tnom = 27
temp = 27
method = modified trap
totiter = 2519
traniter = 2084
tranpoints = 1042
accept = 1042
rejected = 0
matrix size = 29
fillins = 8
solver = Normal
Matrix Compiler1: 2.75 KB object code size  1.3/0.9/[0.4]
Matrix Compiler2: 2.63 KB object code size  0.6/0.8/[0.5]

