Circuit: * D:\Documents\Github\Electromiografo\Design\dif_mosfet\simulacion.asc

Direct Newton iteration for .op point succeeded.

Date: Sun Apr 23 13:12:55 2017
Total elapsed time: 0.097 seconds.

tnom = 27
temp = 27
method = modified trap
totiter = 4940
traniter = 4907
tranpoints = 1827
accept = 1532
rejected = 295
matrix size = 42
fillins = 24
solver = Normal
Matrix Compiler1: 4.92 KB object code size  1.7/0.7/[0.4]
Matrix Compiler2: off  [0.5]/0.6/0.7


