Circuit: * E:\Documents\Repositorios\Github\Electromiografo\Design\Caracterizacion\QS5K2\simulacion.asc

Direct Newton iteration for .op point succeeded.

Date: Tue Jul 25 19:57:24 2017
Total elapsed time: 0.084 seconds.

tnom = 27
temp = 27
method = modified trap
totiter = 2122
traniter = 2083
tranpoints = 1042
accept = 1042
rejected = 0
matrix size = 10
fillins = 3
solver = Normal
Matrix Compiler1: 736 bytes object code size  0.3/0.2/[0.1]
Matrix Compiler2: off  [0.1]/0.2/0.3

