Circuit: * D:\Documents\Github\Electromiografo\Design\Emiter_follower_ind\Emiter_follower_ind.asc

WARNING: Node SALIDA is floating.

WARNING: Less than two connections to node SALIDA.  This node is used by C1.
Direct Newton iteration for .op point succeeded.

Date: Thu Jun 08 02:48:57 2017
Total elapsed time: 0.093 seconds.

tnom = 27
temp = 27
method = modified trap
totiter = 2090
traniter = 2082
tranpoints = 1042
accept = 1042
rejected = 0
matrix size = 18
fillins = 2
solver = Normal
Matrix Compiler1: 1.20 KB object code size  0.6/0.2/[0.1]
Matrix Compiler2: off  [0.2]/0.2/0.2


