Circuit: * D:\Documents\Github\Electromiografo\Design\Emiter_follower_ind\Emiter_follower_ind.asc

Direct Newton iteration for .op point succeeded.

Date: Wed Jun 07 02:57:39 2017
Total elapsed time: 0.204 seconds.

tnom = 27
temp = 27
method = modified trap
totiter = 2090
traniter = 2082
tranpoints = 1042
accept = 1042
rejected = 0
matrix size = 17
fillins = 2
solver = Normal
Matrix Compiler1: 1.15 KB object code size  0.5/0.3/[0.2]
Matrix Compiler2: off  [0.2]/0.5/0.3


