Circuit: * E:\Documents\Github\Electromiografo\Design\dif_bjt_actload\bjt_act_load.asc

WARNING: Node N003 is floating.

WARNING: Less than two connections to node N003.  This node is used by C3.
Direct Newton iteration for .op point succeeded.

Date: Fri May 19 07:53:19 2017
Total elapsed time: 0.182 seconds.

tnom = 27
temp = 27
method = modified trap
totiter = 2105
traniter = 2086
tranpoints = 1042
accept = 1042
rejected = 0
matrix size = 34
fillins = 12
solver = Normal
Matrix Compiler1: 3,00 KB object code size  2.8/2.3/[1.0]
Matrix Compiler2: 3,15 KB object code size  1.6/2.7/[1.0]


