Circuit: * D:\Documents\Github\Electromiografo\Design\dif_bjt_actload\bjt_act_load.asc

WARNING: Node N003 is floating.

WARNING: Less than two connections to node N003.  This node is used by C3.
Direct Newton iteration for .op point succeeded.

Date: Thu Jul 06 19:28:58 2017
Total elapsed time: 0.288 seconds.

tnom = 27
temp = 27
method = modified trap
totiter = 2105
traniter = 2086
tranpoints = 1042
accept = 1042
rejected = 0
matrix size = 34
fillins = 12
solver = Normal
Matrix Compiler1: 3.01 KB object code size  2.4/0.8/[0.5]
Matrix Compiler2:     248 opcodes  0.9/[0.8]/1.0


