Circuit: * D:\Documents\Github\Electromiografo\Design\LTspice\test\Drenador.asc

Direct Newton iteration for .op point succeeded.

Date: Sun Apr 09 18:56:43 2017
Total elapsed time: 0.096 seconds.

tnom = 27
temp = 27
method = modified trap
totiter = 2087
traniter = 2082
tranpoints = 1042
accept = 1042
rejected = 0
matrix size = 10
fillins = 0
solver = Normal
Matrix Compiler1: 738 bytes object code size  0.2/0.1/[0.1]
Matrix Compiler2: off  [0.1]/0.2/0.1


