Circuit: * D:\Documents\Github\Electromiografo\Design\dif_bjt\simulacion DC.asc

Direct Newton iteration for .op point succeeded.

Date: Thu May 25 14:23:02 2017
Total elapsed time: 0.270 seconds.

tnom = 27
temp = 27
method = modified trap
totiter = 2115
traniter = 2082
tranpoints = 1042
accept = 1042
rejected = 0
matrix size = 20
fillins = 0
solver = Normal
Matrix Compiler1: 1.33 KB object code size  0.9/0.5/[0.2]
Matrix Compiler2: off  [0.4]/0.6/0.9


