Circuit: * D:\Documents\Github\Electromiografo\Design\LTspice\Fuente\Fuente.asc

Direct Newton iteration for .op point succeeded.

Date: Sun Apr 09 18:59:59 2017
Total elapsed time: 0.110 seconds.

tnom = 27
temp = 27
method = modified trap
totiter = 2094
traniter = 2082
tranpoints = 1042
accept = 1042
rejected = 0
matrix size = 19
fillins = 4
solver = Normal
Matrix Compiler1: 1.90 KB object code size  0.7/0.2/[0.2]
Matrix Compiler2: off  [0.2]/0.2/0.3


