Circuit: * D:\Documents\Github\Electromiografo\Design\dif_mosfet_actload\simulacion.asc

Direct Newton iteration for .op point succeeded.

Date: Mon May 08 04:05:55 2017
Total elapsed time: 0.220 seconds.

tnom = 27
temp = 27
method = modified trap
totiter = 2113
traniter = 2085
tranpoints = 1043
accept = 1043
rejected = 0
matrix size = 34
fillins = 10
solver = Normal
Matrix Compiler1: 3.48 KB object code size  1.3/0.5/[0.3]
Matrix Compiler2: off  [0.4]/0.5/0.7


